LAMMPS (3 Mar 2020)

units real

boundary p p p

atom_style full
pair_style lj/cut/coul/long 10.0
kspace_style ewald 1.0e-4
bond_style harmonic
angle_style harmonic
dihedral_style harmonic
improper_style cvff

read_data 3.4.data
  orthogonal box = (-0.307406 -0.111927 0) to (29.2126 30.4881 157)
  reading atoms ...
  6610 atoms
  scanning bonds ...
  scanning angles ...
  scanning dihedrals ...
  scanning impropers ...
  reading bonds ...
  7236 bonds
  reading angles ...
  13080 angles
  reading dihedrals ...
  20826 dihedrals
  reading impropers ...
  3096 impropers

#settings
neighbor 2.0 bin
neigh_modify delay 2 check yes

#group
group he id 1:322
322 atoms in group he
group allc4 molecule  2:301
3600 atoms in group allc4
group graphene subtract all allc4 he
2688 atoms in group graphene
region vacuo block INF INF INF INF 116.0 INF
group c4h6 molecule 2:151
1500 atoms in group c4h6
group c4h10 molecule 152:301
2100 atoms in group c4h10

fix 1 graphene  setforce 0.0 0.0 0.0
fix 11 he       setforce 0.0 0.0 0.0

#structure optimization
minimize 1.0e-4 1.0e-6 1000 10000
Ewald initialization ...
  G vector (1/distance) = 0.192904
  estimated absolute RMS force accuracy = 0.0427943
  estimated relative force accuracy = 0.000128874
  KSpace vectors: actual max1d max3d = 651 15 14895
                  kxmax kymax kzmax  = 4 4 15
  update every 1 steps, delay 0 steps, check yes
Step Temp E_pair E_mol TotEng Press
0            0    28111.992    12332.214    40444.206    9573.9564
Loop time of 0.340514 on 80 procs for 10 steps with 6610 atoms

Minimization stats:
  Stopping criterion = energy tolerance
  Energy initial, next-to-last, final =
  Force two-norm initial, final = 349.843 66.5148
  Force max component initial, final = 19.2238 4.34992
  Final line search alpha, max atom move = 0.0153092 0.0665939
  Iterations, force evaluations = 10 20

compute  mobile allc4  temp
velocity allc4  create  298.0 45218
fix 3 all nvt temp 298.0 298.0 100.0

#variable
variable Nc4h10 equal count(c4h10,vacuo)/14.0
variable Nc4h6 equal count(c4h6,vacuo)/10.0
variable st equal step/1000000

#statistics

#number density calculation
compute dense allc4 chunk/atom bin/1d z lower 2
fix C4H10number c4h10 ave/chunk 100 10 100000 dense density/number ave one file c4h10density.tem
fix C4H6number c4h6 ave/chunk 100 10 100000 dense density/number ave one file c4h6density.tem

timestep  1
thermo   10000
dump mydump all  xyz 10000 10ps.xyz
dump_modify  mydump element He Cp C H C3 C2
thermo_style custom step temp press etotal

echo both
restart 5000000  *.restart
run 10000000
Ewald initialization ...
  G vector (1/distance) = 0.192904
  estimated absolute RMS force accuracy = 0.0427943
  estimated relative force accuracy = 0.000128874
  KSpace vectors: actual max1d max3d = 651 15 14895
                  kxmax kymax kzmax  = 4 4 15
Step Temp Press TotEng
10    162.27901    13735.114     43477.46
0.01 ns  c4h6 c4h10 = 0 0
0.02 ns  c4h6 c4h10 = 0 0
0.03 ns  c4h6 c4h10 = 0 0
0.04 ns  c4h6 c4h10 = 0 0
0.05 ns  c4h6 c4h10 = 0 0
0.06 ns  c4h6 c4h10 = 1 0
0.07 ns  c4h6 c4h10 = 1 0
0.08 ns  c4h6 c4h10 = 1.2 0
0.09 ns  c4h6 c4h10 = 1 0
0.1 ns  c4h6 c4h10 = 1 0
0.11 ns  c4h6 c4h10 = 1 0
0.12 ns  c4h6 c4h10 = 2 0
0.13 ns  c4h6 c4h10 = 2 0
0.14 ns  c4h6 c4h10 = 3.1 0
0.15 ns  c4h6 c4h10 = 3.5 0
0.16 ns  c4h6 c4h10 = 4 0
0.17 ns  c4h6 c4h10 = 5.4 0
0.18 ns  c4h6 c4h10 = 7.3 0
0.19 ns  c4h6 c4h10 = 6.5 0
0.2 ns  c4h6 c4h10 = 7.6 0
0.21 ns  c4h6 c4h10 = 9 0
0.22 ns  c4h6 c4h10 = 8.1 0
0.23 ns  c4h6 c4h10 = 8.5 0
0.24 ns  c4h6 c4h10 = 10.1 0
0.25 ns  c4h6 c4h10 = 10.6 0
0.26 ns  c4h6 c4h10 = 13.1 0
0.27 ns  c4h6 c4h10 = 12.6 0
0.28 ns  c4h6 c4h10 = 14 0
0.29 ns  c4h6 c4h10 = 14.7 0
0.3 ns  c4h6 c4h10 = 14.5 0
0.31 ns  c4h6 c4h10 = 15.6 0
0.32 ns  c4h6 c4h10 = 15.7 0
0.33 ns  c4h6 c4h10 = 17 0
0.34 ns  c4h6 c4h10 = 19 0
0.35 ns  c4h6 c4h10 = 18.6 0
0.36 ns  c4h6 c4h10 = 18.3 0
0.37 ns  c4h6 c4h10 = 18.3 0
0.38 ns  c4h6 c4h10 = 18 0
0.39 ns  c4h6 c4h10 = 19.2 0
0.4 ns  c4h6 c4h10 = 20.5 0
0.41 ns  c4h6 c4h10 = 20 0
0.42 ns  c4h6 c4h10 = 21.6 0
0.43 ns  c4h6 c4h10 = 22.1 0
0.44 ns  c4h6 c4h10 = 21.9 0
0.45 ns  c4h6 c4h10 = 20.4 0
0.46 ns  c4h6 c4h10 = 21.5 0
0.47 ns  c4h6 c4h10 = 20.2 0
0.48 ns  c4h6 c4h10 = 18.7 0
0.49 ns  c4h6 c4h10 = 19.4 0
0.5 ns  c4h6 c4h10 = 20.3 0
0.51 ns  c4h6 c4h10 = 20.9 0
0.52 ns  c4h6 c4h10 = 20.3 0
0.53 ns  c4h6 c4h10 = 20.8 0
0.54 ns  c4h6 c4h10 = 21.5 0
0.55 ns  c4h6 c4h10 = 21.7 0
0.56 ns  c4h6 c4h10 = 22.4 0
0.57 ns  c4h6 c4h10 = 22 0
0.58 ns  c4h6 c4h10 = 22.1 0
0.59 ns  c4h6 c4h10 = 23.5 0
0.6 ns  c4h6 c4h10 = 24.4 0
0.61 ns  c4h6 c4h10 = 24.5 0
0.62 ns  c4h6 c4h10 = 25.3 0
0.63 ns  c4h6 c4h10 = 25 0
0.64 ns  c4h6 c4h10 = 23.8 0
0.65 ns  c4h6 c4h10 = 26.2 0
0.66 ns  c4h6 c4h10 = 24.7 0
0.67 ns  c4h6 c4h10 = 25.5 0
0.68 ns  c4h6 c4h10 = 25 0
0.69 ns  c4h6 c4h10 = 26.3 0
0.7 ns  c4h6 c4h10 = 26.2 0
0.71 ns  c4h6 c4h10 = 25.7 0
0.72 ns  c4h6 c4h10 = 27 0
0.73 ns  c4h6 c4h10 = 27.5 0
0.74 ns  c4h6 c4h10 = 27.5 0
0.75 ns  c4h6 c4h10 = 27.7 0
0.76 ns  c4h6 c4h10 = 27.6 0
0.77 ns  c4h6 c4h10 = 26.6 0
0.78 ns  c4h6 c4h10 = 26.3 0
0.79 ns  c4h6 c4h10 = 25.4 0
0.8 ns  c4h6 c4h10 = 24 0
0.81 ns  c4h6 c4h10 = 24.4 0
0.82 ns  c4h6 c4h10 = 24.8 0
0.83 ns  c4h6 c4h10 = 25 0
0.84 ns  c4h6 c4h10 = 26.5 0
0.85 ns  c4h6 c4h10 = 25.4 0
0.86 ns  c4h6 c4h10 = 26 0
0.87 ns  c4h6 c4h10 = 27 0
0.88 ns  c4h6 c4h10 = 27.6 0
0.89 ns  c4h6 c4h10 = 26.5 0
0.9 ns  c4h6 c4h10 = 27.1 0
0.91 ns  c4h6 c4h10 = 27.2 0
0.92 ns  c4h6 c4h10 = 28.1 0
0.93 ns  c4h6 c4h10 = 28 0
0.94 ns  c4h6 c4h10 = 28.2 0
0.95 ns  c4h6 c4h10 = 29 0
0.96 ns  c4h6 c4h10 = 30 0
0.97 ns  c4h6 c4h10 = 29.8 0
0.98 ns  c4h6 c4h10 = 30.5 0
0.99 ns  c4h6 c4h10 = 28.4 0
1 ns  c4h6 c4h10 = 27.7 0
1.01 ns  c4h6 c4h10 = 29.6 0
1.02 ns  c4h6 c4h10 = 32.6 0
1.03 ns  c4h6 c4h10 = 32.7 0
1.04 ns  c4h6 c4h10 = 32 0
1.05 ns  c4h6 c4h10 = 32.5 0
1.06 ns  c4h6 c4h10 = 33 0
1.07 ns  c4h6 c4h10 = 32.8 0
1.08 ns  c4h6 c4h10 = 32.9 0
1.09 ns  c4h6 c4h10 = 32.7 0
1.1 ns  c4h6 c4h10 = 33.1 0
1.11 ns  c4h6 c4h10 = 33.6 0
1.12 ns  c4h6 c4h10 = 33.4 0
1.13 ns  c4h6 c4h10 = 32.9 0
1.14 ns  c4h6 c4h10 = 33.7 0
1.15 ns  c4h6 c4h10 = 33.4 0
1.16 ns  c4h6 c4h10 = 32.8 0
1.17 ns  c4h6 c4h10 = 33.1 0
1.18 ns  c4h6 c4h10 = 33.8 0
1.19 ns  c4h6 c4h10 = 33.1 0
1.2 ns  c4h6 c4h10 = 32.5 0
1.21 ns  c4h6 c4h10 = 32.3 0
1.22 ns  c4h6 c4h10 = 33 0
1.23 ns  c4h6 c4h10 = 32.8 0
1.24 ns  c4h6 c4h10 = 30.1 0
1.25 ns  c4h6 c4h10 = 30.7 0
1.26 ns  c4h6 c4h10 = 31.2 0
1.27 ns  c4h6 c4h10 = 31.3 0
1.28 ns  c4h6 c4h10 = 31.6 0
1.29 ns  c4h6 c4h10 = 32.6 0
1.3 ns  c4h6 c4h10 = 32.2 0
1.31 ns  c4h6 c4h10 = 32.3 0
1.32 ns  c4h6 c4h10 = 33 0
1.33 ns  c4h6 c4h10 = 33.5 0
1.34 ns  c4h6 c4h10 = 34 0
1.35 ns  c4h6 c4h10 = 34 0
1.36 ns  c4h6 c4h10 = 34.6 0
1.37 ns  c4h6 c4h10 = 35.2 0
1.38 ns  c4h6 c4h10 = 35.4 0
1.39 ns  c4h6 c4h10 = 36.7 0
1.4 ns  c4h6 c4h10 = 31.6 0
1.41 ns  c4h6 c4h10 = 35.9 0
1.42 ns  c4h6 c4h10 = 36.1 0
1.43 ns  c4h6 c4h10 = 36.7 0
1.44 ns  c4h6 c4h10 = 36.2 0
1.45 ns  c4h6 c4h10 = 35.8 0
1.46 ns  c4h6 c4h10 = 35.8 0
1.47 ns  c4h6 c4h10 = 35.2 0
1.48 ns  c4h6 c4h10 = 36 0
1.49 ns  c4h6 c4h10 = 37.2 0
1.5 ns  c4h6 c4h10 = 36.6 0
1.51 ns  c4h6 c4h10 = 36.1 0
1.52 ns  c4h6 c4h10 = 33.8 0
1.53 ns  c4h6 c4h10 = 34 0
1.54 ns  c4h6 c4h10 = 35.4 0
1.55 ns  c4h6 c4h10 = 36.3 0
1.56 ns  c4h6 c4h10 = 36.2 0
1.57 ns  c4h6 c4h10 = 36.1 0
1.58 ns  c4h6 c4h10 = 36.7 0
1.59 ns  c4h6 c4h10 = 36 0
1.6 ns  c4h6 c4h10 = 37.6 0
1.61 ns  c4h6 c4h10 = 37.7 0
1.62 ns  c4h6 c4h10 = 37.2 0
1.63 ns  c4h6 c4h10 = 37.4 0
1.64 ns  c4h6 c4h10 = 37.4 0
1.65 ns  c4h6 c4h10 = 39.2 0
1.66 ns  c4h6 c4h10 = 40 0
1.67 ns  c4h6 c4h10 = 40.7 0
1.68 ns  c4h6 c4h10 = 37.3 0
1.69 ns  c4h6 c4h10 = 37.6 0
1.7 ns  c4h6 c4h10 = 37.9 0
1.71 ns  c4h6 c4h10 = 37.8 0
1.72 ns  c4h6 c4h10 = 39.2 0
1.73 ns  c4h6 c4h10 = 39.3 0
1.74 ns  c4h6 c4h10 = 40.7 0
1.75 ns  c4h6 c4h10 = 39.9 0
1.76 ns  c4h6 c4h10 = 40.1 0
1.77 ns  c4h6 c4h10 = 39.9 0
1.78 ns  c4h6 c4h10 = 38.6 0
1.79 ns  c4h6 c4h10 = 38.1 0
1.8 ns  c4h6 c4h10 = 38 0
1.81 ns  c4h6 c4h10 = 38.7 0
1.82 ns  c4h6 c4h10 = 39.7 0
1.83 ns  c4h6 c4h10 = 39.9 0
1.84 ns  c4h6 c4h10 = 38.1 0
1.85 ns  c4h6 c4h10 = 40.3 0
1.86 ns  c4h6 c4h10 = 41 0
1.87 ns  c4h6 c4h10 = 39.7 0
1.88 ns  c4h6 c4h10 = 39.9 0
1.89 ns  c4h6 c4h10 = 40.4 0
1.9 ns  c4h6 c4h10 = 39.6 0
1.91 ns  c4h6 c4h10 = 40.1 0
1.92 ns  c4h6 c4h10 = 41.2 0
1.93 ns  c4h6 c4h10 = 39.6 0
1.94 ns  c4h6 c4h10 = 38.6 0
1.95 ns  c4h6 c4h10 = 39.7 0
1.96 ns  c4h6 c4h10 = 39.8 0
1.97 ns  c4h6 c4h10 = 40.9 0
1.98 ns  c4h6 c4h10 = 39.6 0
1.99 ns  c4h6 c4h10 = 38.1 0
2 ns  c4h6 c4h10 = 40.5 0
2.01 ns  c4h6 c4h10 = 41.4 0
2.02 ns  c4h6 c4h10 = 41.5 0
2.03 ns  c4h6 c4h10 = 41.7 0
2.04 ns  c4h6 c4h10 = 41.9 0
2.05 ns  c4h6 c4h10 = 42 0
2.06 ns  c4h6 c4h10 = 41.4 0
2.07 ns  c4h6 c4h10 = 40.1 0
2.08 ns  c4h6 c4h10 = 39.9 0
2.09 ns  c4h6 c4h10 = 40.9 0
2.1 ns  c4h6 c4h10 = 40.7 0
2.11 ns  c4h6 c4h10 = 40.9 0
2.12 ns  c4h6 c4h10 = 41.6 0
2.13 ns  c4h6 c4h10 = 42.3 0
2.14 ns  c4h6 c4h10 = 40.3 0
2.15 ns  c4h6 c4h10 = 41.7 0
2.16 ns  c4h6 c4h10 = 41 0
2.17 ns  c4h6 c4h10 = 41.6 0
2.18 ns  c4h6 c4h10 = 42 0
2.19 ns  c4h6 c4h10 = 41.9 0
2.2 ns  c4h6 c4h10 = 41.5 0
2.21 ns  c4h6 c4h10 = 40.2 0
2.22 ns  c4h6 c4h10 = 40.2 0
2.23 ns  c4h6 c4h10 = 41.2 0
2.24 ns  c4h6 c4h10 = 41.7 0
2.25 ns  c4h6 c4h10 = 41.2 0
2.26 ns  c4h6 c4h10 = 40.7 0
2.27 ns  c4h6 c4h10 = 41.4 0
2.28 ns  c4h6 c4h10 = 40.4 0
2.29 ns  c4h6 c4h10 = 40.5 0
2.3 ns  c4h6 c4h10 = 40.3 0
2.31 ns  c4h6 c4h10 = 40.9 0
2.32 ns  c4h6 c4h10 = 40.1 0
2.33 ns  c4h6 c4h10 = 41.1 0
2.34 ns  c4h6 c4h10 = 40.8 0
2.35 ns  c4h6 c4h10 = 42 0
2.36 ns  c4h6 c4h10 = 42.3 0
2.37 ns  c4h6 c4h10 = 41.9 0
2.38 ns  c4h6 c4h10 = 42.2 0
2.39 ns  c4h6 c4h10 = 42.5 0
2.4 ns  c4h6 c4h10 = 43 0
2.41 ns  c4h6 c4h10 = 41.8 0
2.42 ns  c4h6 c4h10 = 41.1 0
2.43 ns  c4h6 c4h10 = 42.2 0
2.44 ns  c4h6 c4h10 = 41.8 0
2.45 ns  c4h6 c4h10 = 41.4 0
2.46 ns  c4h6 c4h10 = 42.4 0
2.47 ns  c4h6 c4h10 = 41.8 0
2.48 ns  c4h6 c4h10 = 42.2 0
2.49 ns  c4h6 c4h10 = 43.2 0
2.5 ns  c4h6 c4h10 = 44.6 0
2.51 ns  c4h6 c4h10 = 43 0
2.52 ns  c4h6 c4h10 = 42.8 0
2.53 ns  c4h6 c4h10 = 42.7 0
2.54 ns  c4h6 c4h10 = 42.4 0
2.55 ns  c4h6 c4h10 = 43.8 0
2.56 ns  c4h6 c4h10 = 44.9 0
2.57 ns  c4h6 c4h10 = 44.7 0
2.58 ns  c4h6 c4h10 = 46 0
2.59 ns  c4h6 c4h10 = 46 0
2.6 ns  c4h6 c4h10 = 45.9 0
2.61 ns  c4h6 c4h10 = 46.3 0
2.62 ns  c4h6 c4h10 = 46 0
2.63 ns  c4h6 c4h10 = 43.8 0
2.64 ns  c4h6 c4h10 = 43.8 0
2.65 ns  c4h6 c4h10 = 43.9 0
2.66 ns  c4h6 c4h10 = 43.7 0
2.67 ns  c4h6 c4h10 = 43.3 0
2.68 ns  c4h6 c4h10 = 43.3 0
2.69 ns  c4h6 c4h10 = 43.9 0
2.7 ns  c4h6 c4h10 = 44 0
2.71 ns  c4h6 c4h10 = 43.7 0
2.72 ns  c4h6 c4h10 = 44.4 0
2.73 ns  c4h6 c4h10 = 44.2 0
2.74 ns  c4h6 c4h10 = 44.3 0
2.75 ns  c4h6 c4h10 = 43.9 0
2.76 ns  c4h6 c4h10 = 44.7 0
2.77 ns  c4h6 c4h10 = 43.7 0
2.78 ns  c4h6 c4h10 = 42.7 0
2.79 ns  c4h6 c4h10 = 43.3 0
2.8 ns  c4h6 c4h10 = 44.4 0
2.81 ns  c4h6 c4h10 = 45 0
2.82 ns  c4h6 c4h10 = 44.1 0
2.83 ns  c4h6 c4h10 = 45 0
2.84 ns  c4h6 c4h10 = 45.4 0
2.85 ns  c4h6 c4h10 = 45.5 0
2.86 ns  c4h6 c4h10 = 46.1 0
2.87 ns  c4h6 c4h10 = 45.7 0
2.88 ns  c4h6 c4h10 = 47.7 0
2.89 ns  c4h6 c4h10 = 47.5 0
2.9 ns  c4h6 c4h10 = 46.7 0
2.91 ns  c4h6 c4h10 = 45.8 0
2.92 ns  c4h6 c4h10 = 45 0
2.93 ns  c4h6 c4h10 = 46.6 0
2.94 ns  c4h6 c4h10 = 47.1 0
2.95 ns  c4h6 c4h10 = 45.4 0
2.96 ns  c4h6 c4h10 = 45 0
2.97 ns  c4h6 c4h10 = 44.3 0
2.98 ns  c4h6 c4h10 = 45.2 0
2.99 ns  c4h6 c4h10 = 45.9 0
3 ns  c4h6 c4h10 = 48.2 0
3.01 ns  c4h6 c4h10 = 48.4 0
3.02 ns  c4h6 c4h10 = 49.5 0
3.03 ns  c4h6 c4h10 = 49.6 0
3.04 ns  c4h6 c4h10 = 49.8 0
3.05 ns  c4h6 c4h10 = 50.9 0
3.06 ns  c4h6 c4h10 = 50.7 0
3.07 ns  c4h6 c4h10 = 50.7 0
3.08 ns  c4h6 c4h10 = 50.8 0
3.09 ns  c4h6 c4h10 = 49.5 0
3.1 ns  c4h6 c4h10 = 48.8 0
3.11 ns  c4h6 c4h10 = 50.9 0
3.12 ns  c4h6 c4h10 = 50 0
3.13 ns  c4h6 c4h10 = 50.4 0
3.14 ns  c4h6 c4h10 = 49.8 0
3.15 ns  c4h6 c4h10 = 51.8 0
3.16 ns  c4h6 c4h10 = 52 0
3.17 ns  c4h6 c4h10 = 50.7 0
3.18 ns  c4h6 c4h10 = 50.9 0
3.19 ns  c4h6 c4h10 = 50.5 0
3.2 ns  c4h6 c4h10 = 51.2 0
3.21 ns  c4h6 c4h10 = 51 0
3.22 ns  c4h6 c4h10 = 51.5 0
3.23 ns  c4h6 c4h10 = 48.8 0
3.24 ns  c4h6 c4h10 = 48.9 0
3.25 ns  c4h6 c4h10 = 47.2 0
3.26 ns  c4h6 c4h10 = 47.7 0
3.27 ns  c4h6 c4h10 = 47.6 0
3.28 ns  c4h6 c4h10 = 47.4 0
3.29 ns  c4h6 c4h10 = 49.4 0
3.3 ns  c4h6 c4h10 = 49.6 0
3.31 ns  c4h6 c4h10 = 49.1 0
3.32 ns  c4h6 c4h10 = 48.4 0
3.33 ns  c4h6 c4h10 = 48.2 0
3.34 ns  c4h6 c4h10 = 50.2 0
3.35 ns  c4h6 c4h10 = 48.8 0
3.36 ns  c4h6 c4h10 = 49.3 0
3.37 ns  c4h6 c4h10 = 49.2 0
3.38 ns  c4h6 c4h10 = 49.3 0
3.39 ns  c4h6 c4h10 = 48.3 0
3.4 ns  c4h6 c4h10 = 47.2 0
3.41 ns  c4h6 c4h10 = 47.5 0
3.42 ns  c4h6 c4h10 = 46.8 0
3.43 ns  c4h6 c4h10 = 45.6 0
3.44 ns  c4h6 c4h10 = 46.6 0
3.45 ns  c4h6 c4h10 = 45.5 0
3.46 ns  c4h6 c4h10 = 45.1 0
3.47 ns  c4h6 c4h10 = 44.9 0
3.48 ns  c4h6 c4h10 = 47.7 0
3.49 ns  c4h6 c4h10 = 46.6 0
3.5 ns  c4h6 c4h10 = 46.9 0
3.51 ns  c4h6 c4h10 = 47 0
3.52 ns  c4h6 c4h10 = 46.5 0
3.53 ns  c4h6 c4h10 = 45.9 0
3.54 ns  c4h6 c4h10 = 45.6 0
3.55 ns  c4h6 c4h10 = 46.8 0
3.56 ns  c4h6 c4h10 = 46.9 0
3.57 ns  c4h6 c4h10 = 45.9 0
3.58 ns  c4h6 c4h10 = 48.6 0
3.59 ns  c4h6 c4h10 = 48 0
3.6 ns  c4h6 c4h10 = 46.8 0
3.61 ns  c4h6 c4h10 = 48 0
3.62 ns  c4h6 c4h10 = 47.7 0
3.63 ns  c4h6 c4h10 = 47.3 0
3.64 ns  c4h6 c4h10 = 47.9 0
3.65 ns  c4h6 c4h10 = 46.5 0
3.66 ns  c4h6 c4h10 = 48.8 0
3.67 ns  c4h6 c4h10 = 49.7 0
3.68 ns  c4h6 c4h10 = 50.6 0
3.69 ns  c4h6 c4h10 = 51.2 0
3.7 ns  c4h6 c4h10 = 50.1 0
3.71 ns  c4h6 c4h10 = 48.8 0
3.72 ns  c4h6 c4h10 = 48.3 0
3.73 ns  c4h6 c4h10 = 48.9 0
3.74 ns  c4h6 c4h10 = 49.5 0
3.75 ns  c4h6 c4h10 = 50.5 0
3.76 ns  c4h6 c4h10 = 51.3 0
3.77 ns  c4h6 c4h10 = 51.9 0
3.78 ns  c4h6 c4h10 = 52.9 0
3.79 ns  c4h6 c4h10 = 51.4 0
3.8 ns  c4h6 c4h10 = 51 0
3.81 ns  c4h6 c4h10 = 50.7 0
3.82 ns  c4h6 c4h10 = 52.1 0
3.83 ns  c4h6 c4h10 = 53.4 0
3.84 ns  c4h6 c4h10 = 52.6 0
3.85 ns  c4h6 c4h10 = 53.7 0
3.86 ns  c4h6 c4h10 = 51.9 0
3.87 ns  c4h6 c4h10 = 51.7 0
3.88 ns  c4h6 c4h10 = 51.7 0
3.89 ns  c4h6 c4h10 = 52.8 0
3.9 ns  c4h6 c4h10 = 53 0
3.91 ns  c4h6 c4h10 = 52.5 0
3.92 ns  c4h6 c4h10 = 50.9 0
3.93 ns  c4h6 c4h10 = 51 0
3.94 ns  c4h6 c4h10 = 49.1 0
3.95 ns  c4h6 c4h10 = 49.8 0
3.96 ns  c4h6 c4h10 = 50.5 0
3.97 ns  c4h6 c4h10 = 49.6 0
3.98 ns  c4h6 c4h10 = 47.7 0
3.99 ns  c4h6 c4h10 = 49 0
4 ns  c4h6 c4h10 = 49.1 0
4.01 ns  c4h6 c4h10 = 47.9 0
4.02 ns  c4h6 c4h10 = 48.4 0
4.03 ns  c4h6 c4h10 = 46.4 0
4.04 ns  c4h6 c4h10 = 47.1 0
4.05 ns  c4h6 c4h10 = 47.8 0
4.06 ns  c4h6 c4h10 = 47 0
4.07 ns  c4h6 c4h10 = 48 0
4.08 ns  c4h6 c4h10 = 46.6 0
4.09 ns  c4h6 c4h10 = 49.3 0
4.1 ns  c4h6 c4h10 = 47.7 0
4.11 ns  c4h6 c4h10 = 47.2 0
4.12 ns  c4h6 c4h10 = 45.3 0
4.13 ns  c4h6 c4h10 = 46.4 0
4.14 ns  c4h6 c4h10 = 48.1 0
4.15 ns  c4h6 c4h10 = 47 0
4.16 ns  c4h6 c4h10 = 48.2 0
4.17 ns  c4h6 c4h10 = 49 0
4.18 ns  c4h6 c4h10 = 48.2 0
4.19 ns  c4h6 c4h10 = 48.2 0
4.2 ns  c4h6 c4h10 = 48.3 0
4.21 ns  c4h6 c4h10 = 47.8 0
4.22 ns  c4h6 c4h10 = 48.7 0
4.23 ns  c4h6 c4h10 = 47.1 0
4.24 ns  c4h6 c4h10 = 47.9 0
4.25 ns  c4h6 c4h10 = 48.8 0
4.26 ns  c4h6 c4h10 = 49.6 0
4.27 ns  c4h6 c4h10 = 49.9 0
4.28 ns  c4h6 c4h10 = 49.9 0
4.29 ns  c4h6 c4h10 = 49 0
4.3 ns  c4h6 c4h10 = 49.5 0
4.31 ns  c4h6 c4h10 = 49.2 0
4.32 ns  c4h6 c4h10 = 50 0
4.33 ns  c4h6 c4h10 = 49.8 0
4.34 ns  c4h6 c4h10 = 50.2 0
4.35 ns  c4h6 c4h10 = 49 0
4.36 ns  c4h6 c4h10 = 48.1 0
4.37 ns  c4h6 c4h10 = 47.4 0
4.38 ns  c4h6 c4h10 = 47.2 0
4.39 ns  c4h6 c4h10 = 48.3 0
4.4 ns  c4h6 c4h10 = 47.6 0
4.41 ns  c4h6 c4h10 = 46.9 0
4.42 ns  c4h6 c4h10 = 47.7 0
4.43 ns  c4h6 c4h10 = 49.1 0
4.44 ns  c4h6 c4h10 = 49.6 0
4.45 ns  c4h6 c4h10 = 48.8 0
4.46 ns  c4h6 c4h10 = 46.7 0
4.47 ns  c4h6 c4h10 = 47 0
4.48 ns  c4h6 c4h10 = 48 0
4.49 ns  c4h6 c4h10 = 47.6 0
4.5 ns  c4h6 c4h10 = 46.6 0
4.51 ns  c4h6 c4h10 = 47.3 0
4.52 ns  c4h6 c4h10 = 47.3 0
4.53 ns  c4h6 c4h10 = 47.3 0
4.54 ns  c4h6 c4h10 = 48.9 0
4.55 ns  c4h6 c4h10 = 49.6 0
4.56 ns  c4h6 c4h10 = 48.6 0
4.57 ns  c4h6 c4h10 = 47.4 0
4.58 ns  c4h6 c4h10 = 48.1 0
4.59 ns  c4h6 c4h10 = 46.4 0
4.6 ns  c4h6 c4h10 = 46.9 0
4.61 ns  c4h6 c4h10 = 48.5 0
4.62 ns  c4h6 c4h10 = 48.6 0
4.63 ns  c4h6 c4h10 = 48.6 0
4.64 ns  c4h6 c4h10 = 49.7 0
4.65 ns  c4h6 c4h10 = 49 0
4.66 ns  c4h6 c4h10 = 48.7 0
4.67 ns  c4h6 c4h10 = 47.9 0
4.68 ns  c4h6 c4h10 = 48.8 0
4.69 ns  c4h6 c4h10 = 49.2 0
4.7 ns  c4h6 c4h10 = 49.4 0
4.71 ns  c4h6 c4h10 = 50.5 0
4.72 ns  c4h6 c4h10 = 49.7 0
4.73 ns  c4h6 c4h10 = 49.2 0
4.74 ns  c4h6 c4h10 = 50.9 0
4.75 ns  c4h6 c4h10 = 50.4 0
4.76 ns  c4h6 c4h10 = 48.5 0
4.77 ns  c4h6 c4h10 = 47.5 0
4.78 ns  c4h6 c4h10 = 47.5 0
4.79 ns  c4h6 c4h10 = 48.8 0
4.8 ns  c4h6 c4h10 = 48.8 0
4.81 ns  c4h6 c4h10 = 47.9 0
4.82 ns  c4h6 c4h10 = 48.8 0
4.83 ns  c4h6 c4h10 = 47.1 0
4.84 ns  c4h6 c4h10 = 47.8 0
4.85 ns  c4h6 c4h10 = 47.4 0
4.86 ns  c4h6 c4h10 = 47.3 0
4.87 ns  c4h6 c4h10 = 47 0
4.88 ns  c4h6 c4h10 = 46.3 0
4.89 ns  c4h6 c4h10 = 46.6 0
4.9 ns  c4h6 c4h10 = 46.4 0
4.91 ns  c4h6 c4h10 = 47 0
4.92 ns  c4h6 c4h10 = 47.2 0
4.93 ns  c4h6 c4h10 = 46.7 0
4.94 ns  c4h6 c4h10 = 47.8 0
4.95 ns  c4h6 c4h10 = 45.7 0
4.96 ns  c4h6 c4h10 = 45.7 0
4.97 ns  c4h6 c4h10 = 44.2 0
4.98 ns  c4h6 c4h10 = 45.3 0
4.99 ns  c4h6 c4h10 = 46.3 0
5 ns  c4h6 c4h10 = 47.2 0
5.01 ns  c4h6 c4h10 = 46.3 0
5.02 ns  c4h6 c4h10 = 44.1 0
5.03 ns  c4h6 c4h10 = 43.9 0
5.04 ns  c4h6 c4h10 = 44.9 0
5.05 ns  c4h6 c4h10 = 43.3 0
5.06 ns  c4h6 c4h10 = 42.7 0
5.07 ns  c4h6 c4h10 = 42.7 0
5.08 ns  c4h6 c4h10 = 43.5 0
5.09 ns  c4h6 c4h10 = 42.6 0
5.1 ns  c4h6 c4h10 = 43.6 0
5.11 ns  c4h6 c4h10 = 43 0
5.12 ns  c4h6 c4h10 = 42.7 0
5.13 ns  c4h6 c4h10 = 43.4 0
5.14 ns  c4h6 c4h10 = 42.8 0
5.15 ns  c4h6 c4h10 = 42.8 0
5.16 ns  c4h6 c4h10 = 43.8 0
5.17 ns  c4h6 c4h10 = 44.6 0
5.18 ns  c4h6 c4h10 = 43.8 0
5.19 ns  c4h6 c4h10 = 43.8 0
5.2 ns  c4h6 c4h10 = 44.6 0
5.21 ns  c4h6 c4h10 = 44.5 0
5.22 ns  c4h6 c4h10 = 44.7 0
5.23 ns  c4h6 c4h10 = 45.6 0
5.24 ns  c4h6 c4h10 = 47.4 0
5.25 ns  c4h6 c4h10 = 45.8 0
5.26 ns  c4h6 c4h10 = 45.3 0
5.27 ns  c4h6 c4h10 = 45.8 0
5.28 ns  c4h6 c4h10 = 45.1 0
5.29 ns  c4h6 c4h10 = 47.5 0
5.3 ns  c4h6 c4h10 = 46.8 0
5.31 ns  c4h6 c4h10 = 45.4 0
5.32 ns  c4h6 c4h10 = 45 0
5.33 ns  c4h6 c4h10 = 44.1 0
5.34 ns  c4h6 c4h10 = 44.1 0
5.35 ns  c4h6 c4h10 = 43.5 0
5.36 ns  c4h6 c4h10 = 42.9 0
5.37 ns  c4h6 c4h10 = 43.3 0
5.38 ns  c4h6 c4h10 = 42.3 0
5.39 ns  c4h6 c4h10 = 43.3 0
5.4 ns  c4h6 c4h10 = 43.5 0
5.41 ns  c4h6 c4h10 = 45.1 0
5.42 ns  c4h6 c4h10 = 46.4 0
5.43 ns  c4h6 c4h10 = 46 0
5.44 ns  c4h6 c4h10 = 46.5 0
5.45 ns  c4h6 c4h10 = 46.9 0
5.46 ns  c4h6 c4h10 = 47.4 0
5.47 ns  c4h6 c4h10 = 49 0
5.48 ns  c4h6 c4h10 = 49.1 0
5.49 ns  c4h6 c4h10 = 49.5 0
5.5 ns  c4h6 c4h10 = 49.9 0
5.51 ns  c4h6 c4h10 = 50.9 0
5.52 ns  c4h6 c4h10 = 50.6 0
5.53 ns  c4h6 c4h10 = 51.4 0
5.54 ns  c4h6 c4h10 = 51.6 0
5.55 ns  c4h6 c4h10 = 51.2 0
5.56 ns  c4h6 c4h10 = 51.8 0
5.57 ns  c4h6 c4h10 = 50.5 0
5.58 ns  c4h6 c4h10 = 50.7 0
5.59 ns  c4h6 c4h10 = 51.7 0
5.6 ns  c4h6 c4h10 = 51.1 0
5.61 ns  c4h6 c4h10 = 51.3 0
5.62 ns  c4h6 c4h10 = 50.5 0
5.63 ns  c4h6 c4h10 = 51.1 0
5.64 ns  c4h6 c4h10 = 52.2 0
5.65 ns  c4h6 c4h10 = 51.4 0
5.66 ns  c4h6 c4h10 = 51.6 0
5.67 ns  c4h6 c4h10 = 50.9 0
5.68 ns  c4h6 c4h10 = 52 0
5.69 ns  c4h6 c4h10 = 51 0
5.7 ns  c4h6 c4h10 = 51.8 0
5.71 ns  c4h6 c4h10 = 53.9 0
5.72 ns  c4h6 c4h10 = 54 0
5.73 ns  c4h6 c4h10 = 52.7 0
5.74 ns  c4h6 c4h10 = 52.5 0
5.75 ns  c4h6 c4h10 = 51.3 0
5.76 ns  c4h6 c4h10 = 53.6 0
5.77 ns  c4h6 c4h10 = 54.4 0
5.78 ns  c4h6 c4h10 = 53.9 0
5.79 ns  c4h6 c4h10 = 53.7 0
5.8 ns  c4h6 c4h10 = 51.8 0
5.81 ns  c4h6 c4h10 = 51.5 0
5.82 ns  c4h6 c4h10 = 51.9 0
5.83 ns  c4h6 c4h10 = 51.5 0
5.84 ns  c4h6 c4h10 = 51.8 0
5.85 ns  c4h6 c4h10 = 50.9 0
5.86 ns  c4h6 c4h10 = 50.3 0
5.87 ns  c4h6 c4h10 = 50.4 0
5.88 ns  c4h6 c4h10 = 50.1 0
5.89 ns  c4h6 c4h10 = 48.4 0
5.9 ns  c4h6 c4h10 = 50.4 0
5.91 ns  c4h6 c4h10 = 49.4 0
5.92 ns  c4h6 c4h10 = 49.6 0
5.93 ns  c4h6 c4h10 = 48.5 0
5.94 ns  c4h6 c4h10 = 49.3 0
5.95 ns  c4h6 c4h10 = 48.7 0
5.96 ns  c4h6 c4h10 = 48 0
5.97 ns  c4h6 c4h10 = 46.2 0
5.98 ns  c4h6 c4h10 = 45.7 0
5.99 ns  c4h6 c4h10 = 45.7 0
6 ns  c4h6 c4h10 = 44.7 0
6.01 ns  c4h6 c4h10 = 45.7 0
6.02 ns  c4h6 c4h10 = 47 0
6.03 ns  c4h6 c4h10 = 47.2 0
6.04 ns  c4h6 c4h10 = 47.6 0
6.05 ns  c4h6 c4h10 = 46.8 0
6.06 ns  c4h6 c4h10 = 47.6 0
6.07 ns  c4h6 c4h10 = 47.9 0
6.08 ns  c4h6 c4h10 = 48.7 0
6.09 ns  c4h6 c4h10 = 49.6 0
6.1 ns  c4h6 c4h10 = 50.2 0
6.11 ns  c4h6 c4h10 = 49.8 0
6.12 ns  c4h6 c4h10 = 49.2 0
6.13 ns  c4h6 c4h10 = 48.8 0
6.14 ns  c4h6 c4h10 = 48.8 0
6.15 ns  c4h6 c4h10 = 49.9 0
6.16 ns  c4h6 c4h10 = 46.9 0
6.17 ns  c4h6 c4h10 = 46.3 0
6.18 ns  c4h6 c4h10 = 48.8 0
6.19 ns  c4h6 c4h10 = 48 0
6.2 ns  c4h6 c4h10 = 47.6 0
6.21 ns  c4h6 c4h10 = 47.4 0
6.22 ns  c4h6 c4h10 = 47.6 0
6.23 ns  c4h6 c4h10 = 46.9 0
6.24 ns  c4h6 c4h10 = 46.2 0
6.25 ns  c4h6 c4h10 = 46.7 0
6.26 ns  c4h6 c4h10 = 47.7 0
6.27 ns  c4h6 c4h10 = 47.7 0
6.28 ns  c4h6 c4h10 = 46.8 0
6.29 ns  c4h6 c4h10 = 46.9 0
6.3 ns  c4h6 c4h10 = 46.7 0
6.31 ns  c4h6 c4h10 = 47.1 0
6.32 ns  c4h6 c4h10 = 49.2 0
6.33 ns  c4h6 c4h10 = 49.4 0
6.34 ns  c4h6 c4h10 = 50.4 0
6.35 ns  c4h6 c4h10 = 50.7 0
6.36 ns  c4h6 c4h10 = 51.1 0
6.37 ns  c4h6 c4h10 = 50.3 0
6.38 ns  c4h6 c4h10 = 49.3 0
6.39 ns  c4h6 c4h10 = 49.4 0
6.4 ns  c4h6 c4h10 = 48.5 0
6.41 ns  c4h6 c4h10 = 47.9 0
6.42 ns  c4h6 c4h10 = 48 0
6.43 ns  c4h6 c4h10 = 48.2 0
6.44 ns  c4h6 c4h10 = 47.6 0
6.45 ns  c4h6 c4h10 = 48.8 0
6.46 ns  c4h6 c4h10 = 49.6 0
6.47 ns  c4h6 c4h10 = 48.8 0
6.48 ns  c4h6 c4h10 = 50.4 0
6.49 ns  c4h6 c4h10 = 51.3 0
6.5 ns  c4h6 c4h10 = 51 0
6.51 ns  c4h6 c4h10 = 51.2 0
6.52 ns  c4h6 c4h10 = 51.5 0
6.53 ns  c4h6 c4h10 = 52 0
6.54 ns  c4h6 c4h10 = 52.5 0
6.55 ns  c4h6 c4h10 = 53.9 0
6.56 ns  c4h6 c4h10 = 51.3 0
6.57 ns  c4h6 c4h10 = 51.4 0
6.58 ns  c4h6 c4h10 = 52 0
6.59 ns  c4h6 c4h10 = 52.8 0
6.6 ns  c4h6 c4h10 = 52.3 0
6.61 ns  c4h6 c4h10 = 51.7 0
6.62 ns  c4h6 c4h10 = 52.5 0
6.63 ns  c4h6 c4h10 = 53.7 0
6.64 ns  c4h6 c4h10 = 53.9 0
6.65 ns  c4h6 c4h10 = 53.2 0
6.66 ns  c4h6 c4h10 = 53.3 0
6.67 ns  c4h6 c4h10 = 52.9 0
6.68 ns  c4h6 c4h10 = 51.7 0
6.69 ns  c4h6 c4h10 = 52.7 0
6.7 ns  c4h6 c4h10 = 51.4 0
6.71 ns  c4h6 c4h10 = 51.8 0
6.72 ns  c4h6 c4h10 = 50.8 0
6.73 ns  c4h6 c4h10 = 51.1 0
6.74 ns  c4h6 c4h10 = 51.1 0
6.75 ns  c4h6 c4h10 = 52 0
6.76 ns  c4h6 c4h10 = 53.3 0
6.77 ns  c4h6 c4h10 = 53.2 0
6.78 ns  c4h6 c4h10 = 54 0
6.79 ns  c4h6 c4h10 = 53.2 0
6.8 ns  c4h6 c4h10 = 53.4 0
6.81 ns  c4h6 c4h10 = 54.2 0
6.82 ns  c4h6 c4h10 = 54 0
6.83 ns  c4h6 c4h10 = 54 0
6.84 ns  c4h6 c4h10 = 55.7 0
6.85 ns  c4h6 c4h10 = 55.6 0
6.86 ns  c4h6 c4h10 = 55.8 0
6.87 ns  c4h6 c4h10 = 55.7 0
6.88 ns  c4h6 c4h10 = 57 0
6.89 ns  c4h6 c4h10 = 57 0
6.9 ns  c4h6 c4h10 = 56.4 0
6.91 ns  c4h6 c4h10 = 57.9 0
6.92 ns  c4h6 c4h10 = 57.7 0
6.93 ns  c4h6 c4h10 = 57.1 0
6.94 ns  c4h6 c4h10 = 54.7 0
6.95 ns  c4h6 c4h10 = 56.1 0
6.96 ns  c4h6 c4h10 = 55.3 0
6.97 ns  c4h6 c4h10 = 55.7 0
6.98 ns  c4h6 c4h10 = 56.5 0
6.99 ns  c4h6 c4h10 = 56.1 0
7 ns  c4h6 c4h10 = 58 0
7.01 ns  c4h6 c4h10 = 56.6 0
7.02 ns  c4h6 c4h10 = 56.2 0
7.03 ns  c4h6 c4h10 = 56.8 0
7.04 ns  c4h6 c4h10 = 57.3 0
7.05 ns  c4h6 c4h10 = 57 0
7.06 ns  c4h6 c4h10 = 56.4 0
7.07 ns  c4h6 c4h10 = 55.9 0
7.08 ns  c4h6 c4h10 = 54.9 0
7.09 ns  c4h6 c4h10 = 55.6 0
7.1 ns  c4h6 c4h10 = 56 0
7.11 ns  c4h6 c4h10 = 56.4 0
7.12 ns  c4h6 c4h10 = 55.1 0
7.13 ns  c4h6 c4h10 = 57.1 0
7.14 ns  c4h6 c4h10 = 56 0
7.15 ns  c4h6 c4h10 = 55.1 0
7.16 ns  c4h6 c4h10 = 54.4 0
7.17 ns  c4h6 c4h10 = 56 0
7.18 ns  c4h6 c4h10 = 54.4 0
7.19 ns  c4h6 c4h10 = 54.7 0
7.2 ns  c4h6 c4h10 = 53.3 0
7.21 ns  c4h6 c4h10 = 53.4 0
7.22 ns  c4h6 c4h10 = 54.3 0
7.23 ns  c4h6 c4h10 = 55 0
7.24 ns  c4h6 c4h10 = 53.6 0
7.25 ns  c4h6 c4h10 = 55.1 0
7.26 ns  c4h6 c4h10 = 53.5 0
7.27 ns  c4h6 c4h10 = 54 0
7.28 ns  c4h6 c4h10 = 53.3 0
7.29 ns  c4h6 c4h10 = 54.3 0
7.3 ns  c4h6 c4h10 = 55.1 0
7.31 ns  c4h6 c4h10 = 55.7 0
7.32 ns  c4h6 c4h10 = 54.4 0
7.33 ns  c4h6 c4h10 = 53.8 0
7.34 ns  c4h6 c4h10 = 53.2 0
7.35 ns  c4h6 c4h10 = 54.7 0
7.36 ns  c4h6 c4h10 = 54.5 0
7.37 ns  c4h6 c4h10 = 55 0
7.38 ns  c4h6 c4h10 = 56 0
7.39 ns  c4h6 c4h10 = 54.7 0
7.4 ns  c4h6 c4h10 = 53.9 0
7.41 ns  c4h6 c4h10 = 53.8 0
7.42 ns  c4h6 c4h10 = 54 0
7.43 ns  c4h6 c4h10 = 52.8 0
7.44 ns  c4h6 c4h10 = 52.7 0
7.45 ns  c4h6 c4h10 = 51.7 0
7.46 ns  c4h6 c4h10 = 51.9 0
7.47 ns  c4h6 c4h10 = 52.1 0
7.48 ns  c4h6 c4h10 = 54.1 0
7.49 ns  c4h6 c4h10 = 52.5 0
7.5 ns  c4h6 c4h10 = 53.8 0
7.51 ns  c4h6 c4h10 = 53 0
7.52 ns  c4h6 c4h10 = 52.4 0
7.53 ns  c4h6 c4h10 = 54 0
7.54 ns  c4h6 c4h10 = 54.2 0
7.55 ns  c4h6 c4h10 = 53.5 0
7.56 ns  c4h6 c4h10 = 53 0
7.57 ns  c4h6 c4h10 = 52.7 0
7.58 ns  c4h6 c4h10 = 49.8 0
7.59 ns  c4h6 c4h10 = 50.7 0
7.6 ns  c4h6 c4h10 = 50.6 0
7.61 ns  c4h6 c4h10 = 49.8 0
7.62 ns  c4h6 c4h10 = 50.3 0
7.63 ns  c4h6 c4h10 = 49.1 0
7.64 ns  c4h6 c4h10 = 49.9 0
7.65 ns  c4h6 c4h10 = 49.9 0
7.66 ns  c4h6 c4h10 = 49.5 0
7.67 ns  c4h6 c4h10 = 50.2 0
7.68 ns  c4h6 c4h10 = 50 0
7.69 ns  c4h6 c4h10 = 47.9 0
7.7 ns  c4h6 c4h10 = 50 0
7.71 ns  c4h6 c4h10 = 49.7 0
7.72 ns  c4h6 c4h10 = 50.5 0
7.73 ns  c4h6 c4h10 = 50.9 0
7.74 ns  c4h6 c4h10 = 50.8 0
7.75 ns  c4h6 c4h10 = 50.6 0
7.76 ns  c4h6 c4h10 = 51.4 0
7.77 ns  c4h6 c4h10 = 51.4 0
7.78 ns  c4h6 c4h10 = 51.6 0
7.79 ns  c4h6 c4h10 = 52.9 0
7.8 ns  c4h6 c4h10 = 51.9 0
7.81 ns  c4h6 c4h10 = 51.8 0
7.82 ns  c4h6 c4h10 = 52.6 0
7.83 ns  c4h6 c4h10 = 52.7 0
7.84 ns  c4h6 c4h10 = 52 0
7.85 ns  c4h6 c4h10 = 52.9 0
7.86 ns  c4h6 c4h10 = 52.7 0
7.87 ns  c4h6 c4h10 = 54 0
7.88 ns  c4h6 c4h10 = 54.7 0
7.89 ns  c4h6 c4h10 = 55.8 0
7.9 ns  c4h6 c4h10 = 53.5 0
7.91 ns  c4h6 c4h10 = 54.8 0
7.92 ns  c4h6 c4h10 = 54.9 0
7.93 ns  c4h6 c4h10 = 55.5 0
7.94 ns  c4h6 c4h10 = 56.3 0
7.95 ns  c4h6 c4h10 = 55.3 0
7.96 ns  c4h6 c4h10 = 56 0
7.97 ns  c4h6 c4h10 = 56.3 0
7.98 ns  c4h6 c4h10 = 56.6 0
7.99 ns  c4h6 c4h10 = 56.9 0
8 ns  c4h6 c4h10 = 58.8 0
8.01 ns  c4h6 c4h10 = 59.9 0
8.02 ns  c4h6 c4h10 = 58.8 0
8.03 ns  c4h6 c4h10 = 58.5 0
8.04 ns  c4h6 c4h10 = 57.8 0
8.05 ns  c4h6 c4h10 = 59.7 0
8.06 ns  c4h6 c4h10 = 59.4 0
8.07 ns  c4h6 c4h10 = 56.6 0
8.08 ns  c4h6 c4h10 = 56.1 0
8.09 ns  c4h6 c4h10 = 56.2 0
8.1 ns  c4h6 c4h10 = 54.8 0
8.11 ns  c4h6 c4h10 = 55.7 0
8.12 ns  c4h6 c4h10 = 55.9 0
8.13 ns  c4h6 c4h10 = 55.1 0
8.14 ns  c4h6 c4h10 = 55.3 0
8.15 ns  c4h6 c4h10 = 57 0
8.16 ns  c4h6 c4h10 = 57.3 0
8.17 ns  c4h6 c4h10 = 57.5 0
8.18 ns  c4h6 c4h10 = 56.2 0
8.19 ns  c4h6 c4h10 = 55.7 0
8.2 ns  c4h6 c4h10 = 56.2 0
8.21 ns  c4h6 c4h10 = 55 0
8.22 ns  c4h6 c4h10 = 56 0
8.23 ns  c4h6 c4h10 = 57.2 0
8.24 ns  c4h6 c4h10 = 55 0
8.25 ns  c4h6 c4h10 = 54.8 0
8.26 ns  c4h6 c4h10 = 54 0
8.27 ns  c4h6 c4h10 = 53 0
8.28 ns  c4h6 c4h10 = 54.5 0
8.29 ns  c4h6 c4h10 = 51.4 0
8.3 ns  c4h6 c4h10 = 52 0
8.31 ns  c4h6 c4h10 = 54.8 0
8.32 ns  c4h6 c4h10 = 54.2 0
8.33 ns  c4h6 c4h10 = 55.8 0
8.34 ns  c4h6 c4h10 = 54.9 0
8.35 ns  c4h6 c4h10 = 54.1 0
8.36 ns  c4h6 c4h10 = 51.3 0
8.37 ns  c4h6 c4h10 = 52.6 0
8.38 ns  c4h6 c4h10 = 51.5 0
8.39 ns  c4h6 c4h10 = 52.9 0
8.4 ns  c4h6 c4h10 = 53.3 0
8.41 ns  c4h6 c4h10 = 52.3 0
8.42 ns  c4h6 c4h10 = 53.7 0
8.43 ns  c4h6 c4h10 = 52.5 0
8.44 ns  c4h6 c4h10 = 52 0
8.45 ns  c4h6 c4h10 = 52.8 0
8.46 ns  c4h6 c4h10 = 52 0
8.47 ns  c4h6 c4h10 = 51.3 0
8.48 ns  c4h6 c4h10 = 51.4 0
8.49 ns  c4h6 c4h10 = 50.4 0
8.5 ns  c4h6 c4h10 = 49.3 0
8.51 ns  c4h6 c4h10 = 50.6 0
8.52 ns  c4h6 c4h10 = 51.4 0
8.53 ns  c4h6 c4h10 = 51.6 0
8.54 ns  c4h6 c4h10 = 52 0
8.55 ns  c4h6 c4h10 = 52 0
8.56 ns  c4h6 c4h10 = 51.7 0
8.57 ns  c4h6 c4h10 = 51.5 0
8.58 ns  c4h6 c4h10 = 50 0
8.59 ns  c4h6 c4h10 = 48.6 0
8.6 ns  c4h6 c4h10 = 48.6 0
8.61 ns  c4h6 c4h10 = 48.9 0
8.62 ns  c4h6 c4h10 = 50.1 0
8.63 ns  c4h6 c4h10 = 50.6 0
8.64 ns  c4h6 c4h10 = 51 0
8.65 ns  c4h6 c4h10 = 51.8 0
8.66 ns  c4h6 c4h10 = 52.2 0
8.67 ns  c4h6 c4h10 = 52.5 0
8.68 ns  c4h6 c4h10 = 53.9 0
8.69 ns  c4h6 c4h10 = 54.6 0
8.7 ns  c4h6 c4h10 = 55 0
8.71 ns  c4h6 c4h10 = 54.1 0
8.72 ns  c4h6 c4h10 = 54.7 0
8.73 ns  c4h6 c4h10 = 54.4 0
8.74 ns  c4h6 c4h10 = 53.8 0
8.75 ns  c4h6 c4h10 = 53.7 0
8.76 ns  c4h6 c4h10 = 53.3 0
8.77 ns  c4h6 c4h10 = 52.8 0
8.78 ns  c4h6 c4h10 = 54.2 0
8.79 ns  c4h6 c4h10 = 54.2 0
8.8 ns  c4h6 c4h10 = 53.3 0
8.81 ns  c4h6 c4h10 = 52.9 0
8.82 ns  c4h6 c4h10 = 52.7 0
8.83 ns  c4h6 c4h10 = 52.4 0
8.84 ns  c4h6 c4h10 = 52.6 0
8.85 ns  c4h6 c4h10 = 52.7 0
8.86 ns  c4h6 c4h10 = 51 0
8.87 ns  c4h6 c4h10 = 52.2 0
8.88 ns  c4h6 c4h10 = 51.3 0
8.89 ns  c4h6 c4h10 = 52 0
8.9 ns  c4h6 c4h10 = 53.1 0
8.91 ns  c4h6 c4h10 = 52.2 0
8.92 ns  c4h6 c4h10 = 54 0
8.93 ns  c4h6 c4h10 = 53.1 0
8.94 ns  c4h6 c4h10 = 52.1 0
8.95 ns  c4h6 c4h10 = 50.8 0
8.96 ns  c4h6 c4h10 = 50.9 0
8.97 ns  c4h6 c4h10 = 48.6 0
8.98 ns  c4h6 c4h10 = 47.5 0
8.99 ns  c4h6 c4h10 = 47.6 0
9 ns  c4h6 c4h10 = 47.4 0
9.01 ns  c4h6 c4h10 = 47.2 0
9.02 ns  c4h6 c4h10 = 47.2 0
9.03 ns  c4h6 c4h10 = 48.5 0
9.04 ns  c4h6 c4h10 = 51.4 0
9.05 ns  c4h6 c4h10 = 51.8 0
9.06 ns  c4h6 c4h10 = 52.2 0
9.07 ns  c4h6 c4h10 = 52.3 0
9.08 ns  c4h6 c4h10 = 53 0
9.09 ns  c4h6 c4h10 = 54.1 0
9.1 ns  c4h6 c4h10 = 52 0
9.11 ns  c4h6 c4h10 = 51.8 0
9.12 ns  c4h6 c4h10 = 53.8 0
9.13 ns  c4h6 c4h10 = 52.4 0
9.14 ns  c4h6 c4h10 = 51.5 0
9.15 ns  c4h6 c4h10 = 52.1 0
9.16 ns  c4h6 c4h10 = 51.7 0
9.17 ns  c4h6 c4h10 = 51.7 0
9.18 ns  c4h6 c4h10 = 53.6 0
9.19 ns  c4h6 c4h10 = 52.5 0
9.2 ns  c4h6 c4h10 = 54.3 0
9.21 ns  c4h6 c4h10 = 52.1 0
9.22 ns  c4h6 c4h10 = 52.1 0
9.23 ns  c4h6 c4h10 = 53.8 0
9.24 ns  c4h6 c4h10 = 53.1 0
9.25 ns  c4h6 c4h10 = 53.3 0
9.26 ns  c4h6 c4h10 = 53.2 0
9.27 ns  c4h6 c4h10 = 52.2 0
9.28 ns  c4h6 c4h10 = 53.9 0
9.29 ns  c4h6 c4h10 = 53.2 0
9.3 ns  c4h6 c4h10 = 53.8 0
9.31 ns  c4h6 c4h10 = 54.2 0
9.32 ns  c4h6 c4h10 = 50.9 0
9.33 ns  c4h6 c4h10 = 51.2 0
9.34 ns  c4h6 c4h10 = 50.1 0
9.35 ns  c4h6 c4h10 = 49.1 0
9.36 ns  c4h6 c4h10 = 49.1 0
9.37 ns  c4h6 c4h10 = 50.1 0
9.38 ns  c4h6 c4h10 = 49.9 0
9.39 ns  c4h6 c4h10 = 48.8 0
9.4 ns  c4h6 c4h10 = 47.9 0
9.41 ns  c4h6 c4h10 = 47.8 0
9.42 ns  c4h6 c4h10 = 51.3 0
9.43 ns  c4h6 c4h10 = 48.8 0
9.44 ns  c4h6 c4h10 = 50.4 0
9.45 ns  c4h6 c4h10 = 47.9 0
9.46 ns  c4h6 c4h10 = 48.6 0
9.47 ns  c4h6 c4h10 = 49.8 0
9.48 ns  c4h6 c4h10 = 51.1 0
9.49 ns  c4h6 c4h10 = 50.6 0
9.5 ns  c4h6 c4h10 = 51.7 0
9.51 ns  c4h6 c4h10 = 51.4 0
9.52 ns  c4h6 c4h10 = 52.2 0
9.53 ns  c4h6 c4h10 = 50.8 0
9.54 ns  c4h6 c4h10 = 51.1 0
9.55 ns  c4h6 c4h10 = 50.9 0
9.56 ns  c4h6 c4h10 = 51.2 0
9.57 ns  c4h6 c4h10 = 50.9 0
9.58 ns  c4h6 c4h10 = 49.7 0
9.59 ns  c4h6 c4h10 = 49 0
9.6 ns  c4h6 c4h10 = 48.3 0
9.61 ns  c4h6 c4h10 = 49 0
9.62 ns  c4h6 c4h10 = 50 0
9.63 ns  c4h6 c4h10 = 48.1 0
9.64 ns  c4h6 c4h10 = 47.7 0
9.65 ns  c4h6 c4h10 = 48.1 0
9.66 ns  c4h6 c4h10 = 49.8 0
9.67 ns  c4h6 c4h10 = 50.8 0
9.68 ns  c4h6 c4h10 = 50 0
9.69 ns  c4h6 c4h10 = 50.8 0
9.7 ns  c4h6 c4h10 = 50.7 0
9.71 ns  c4h6 c4h10 = 49.8 0
9.72 ns  c4h6 c4h10 = 50.7 0
9.73 ns  c4h6 c4h10 = 51 0
9.74 ns  c4h6 c4h10 = 51.4 0
9.75 ns  c4h6 c4h10 = 51.2 0
9.76 ns  c4h6 c4h10 = 52.9 0
9.77 ns  c4h6 c4h10 = 54 0
9.78 ns  c4h6 c4h10 = 53.6 0
9.79 ns  c4h6 c4h10 = 53.1 0
9.8 ns  c4h6 c4h10 = 53.4 0
9.81 ns  c4h6 c4h10 = 51.7 0
9.82 ns  c4h6 c4h10 = 51.6 0
9.83 ns  c4h6 c4h10 = 51.5 0
9.84 ns  c4h6 c4h10 = 51.1 0
9.85 ns  c4h6 c4h10 = 49.7 0
9.86 ns  c4h6 c4h10 = 51.6 0
9.87 ns  c4h6 c4h10 = 51.4 0
9.88 ns  c4h6 c4h10 = 50.1 0
9.89 ns  c4h6 c4h10 = 49.7 0
9.9 ns  c4h6 c4h10 = 50.5 0
9.91 ns  c4h6 c4h10 = 50 0
9.92 ns  c4h6 c4h10 = 49.6 0
9.93 ns  c4h6 c4h10 = 48.9 0
9.94 ns  c4h6 c4h10 = 49.9 0
9.95 ns  c4h6 c4h10 = 50 0
9.96 ns  c4h6 c4h10 = 50.8 0
9.97 ns  c4h6 c4h10 = 49.7 0
9.98 ns  c4h6 c4h10 = 49.7 0
9.99 ns  c4h6 c4h10 = 50.2 0
10 ns  c4h6 c4h10 = 51 0
Loop time of 161524 on 80 procs for 10000000 steps with 6610 atoms
